  24
Coordinates of Anthracene
H    2.5036609    7.52920906   7.5       
H    2.5036609   12.47079141   7.5       
H    2.50524692  10.00000024   7.5       
C    3.59466572   7.52677237   7.5       
C    3.59466572  12.4732281    7.5       
C    3.59731982  10.00000024   7.5       
H    3.75472959   5.39576206   7.5       
H    3.75472959  14.60423794   7.5       
C    4.28946403   6.34532387   7.5       
C    4.28946403  13.65467755   7.5       
C    4.27731583   8.77757531   7.5       
C    4.27731583  11.22242516   7.5       
C    5.72270861   8.77752784   7.5       
C    5.72270861  11.22247263   7.5       
C    5.71053546   6.34520257   7.5       
C    5.71053546  13.6547979    7.5       
H    6.24526689   5.39577749   7.5       
H    6.24526689  14.60422394   7.5       
C    6.40272465  10.00000024   7.5       
C    6.40540872   7.52687426   7.5       
C    6.40540872  12.47312621   7.5       
H    7.49476947  10.00000024   7.5       
H    7.4963391    7.52920407   7.5       
H    7.4963391   12.4707964    7.5   
